scripts/data/matpower/EMS/ems_base_fora_ponta.m
%% MATPOWER Case Format : Version 2
function mpc = ems_base_fora_ponta
mpc.version = '2';

%%-----  Power Flow Data  -----%%
%% system MVA base
mpc.baseMVA = 100.0;
%% bus data
%    bus_i    type    Pd    Qd    Gs    Bs    area    Vm    Va    baseKV    zone    Vmax    Vmin
mpc.bus = [
	10	2	32.0	15.5	0.0	0.0	251	0.98	18.6	992.0	1	1.05	0.95				
	11	2	0.0	0.0	0.0	0.0	251	0.981	19.1	992.0	1	1.05	0.95				
	12	2	0.0	0.0	0.0	0.0	204	0.98	24.1	992.0	1	1.05	0.95				
	13	2	0.0	0.0	0.0	0.0	204	0.96	18.8	990.0	1	1.05	0.95				
	14	2	0.0	0.0	0.0	0.0	255	1.01	6.65	992.0	1	1.05	0.95				
	16	2	0.0	0.0	0.0	0.0	352	0.99	19.1	992.0	1	1.05	0.95				
	17	2	0.0	0.0	0.0	0.0	352	0.96	13.4	990.0	1	1.05	0.95				
	18	2	0.0	0.0	0.0	0.0	351	0.96	42.3	992.0	1	1.05	0.95				
	19	2	0.0	0.0	0.0	0.0	351	0.96	33.5	990.0	1	1.05	0.95				
	20	2	0.0	0.0	0.0	0.0	351	0.96	30.100000000000005	992.0	1	1.05	0.95				
	21	2	0.0	0.0	0.0	0.0	472	0.95	50.7	992.0	1	1.05	0.95				
	22	2	0.0	0.0	0.0	0.0	352	1.01	23.8	992.0	1	1.05	0.95				
	24	2	0.0	0.0	0.0	0.0	208	0.998	21.3	992.0	1	1.05	0.95				
	28	2	0.0	0.0	0.0	0.0	208	1.017	23.8	992.0	1	1.05	0.95				
	30	2	0.0	0.0	0.0	0.0	254	0.996	4.99	992.0	1	1.05	0.95				
	31	2	0.0	0.0	0.0	0.0	254	0.953	4.99	992.0	1	1.05	0.95				
	32	2	0.0	0.0	0.0	0.0	254	0.996	11.4	992.0	1	1.05	0.95				
	35	2	0.0	0.0	0.0	0.0	512	1.026	41.4	992.0	1	1.05	0.95				
	36	2	0.0	0.0	0.0	0.0	511	0.983	45.6	992.0	1	1.05	0.95				
	37	2	0.0	0.0	0.0	0.0	511	0.96	40.9	990.0	1	1.05	0.95				
	38	2	0.0	0.0	0.0	0.0	251	1.01	1.9100000000000001	13.8	1	1.05	0.95				
	41	2	0.0	0.0	0.0	0.0	302	1.013	8.95	990.0	1	1.05	0.95				
	44	2	0.0	0.0	0.0	0.0	251	1.01	1.8900000000000001	13.8	1	1.05	0.95				
	46	1	0.0	0.0	0.0	8.936	252	1.034	16.5	15.0	1	1.9	0.4				
	47	2	0.0	0.0	0.0	0.0	302	1.014	8.95	990.0	1	1.05	0.95				
	48	2	0.0	0.0	0.0	0.0	204	0.949	-8.1	20.0	1	1.05	0.95				
	50	2	0.0	0.0	0.0	0.0	201	0.955	-10.0	20.0	1	1.05	0.95				
	52	1	0.0	0.0	0.0	0.0	252	1.026	17.8	345.0	1	1.05	0.95				
	53	2	0.0	0.0	0.0	0.0	252	1.04	21.8	20.0	1	1.05	0.95				
	54	2	0.0	0.0	0.0	0.0	252	1.04	18.7	1.0	1	1.05	0.95				
	55	1	0.0	0.0	0.0	19.57	513	1.116	25.700000000000003	13.8	1	1.9	0.4				
	56	1	0.0	0.0	0.0	-360.0	201	0.906	-6.3	69.0	1	1.05	0.95				
	57	1	0.0	0.0	0.0	-180.0	201	0.953	-6.6	69.0	1	1.05	0.95				
	58	1	0.0	0.0	0.0	0.0	201	1.015	-6.6	991.0	1	1.9	0.4				
	59	1	0.0	0.0	0.0	0.0	201	1.016	-6.3	991.0	1	1.9	0.4				
	60	1	0.0	0.0	0.0	-990.0	201	0.989	6.35	765.0	1	1.046	0.9				
	61	1	0.0	0.0	0.0	0.0	101	1.03	8.91	500.0	1	1.1	1.0				
	62	1	0.0	0.0	0.0	-150.0	201	1.027	-7.300000000000001	765.0	1	1.046	0.9				
	63	1	0.0	0.0	0.0	-150.0	201	1.027	-7.300000000000001	765.0	1	1.046	0.9				
	64	1	0.0	0.0	0.0	-150.0	201	1.024	-7.1	765.0	1	1.046	0.9				
	65	1	0.0	0.0	0.0	-330.0	201	1.024	-2.2	765.0	1	1.046	0.9				
	66	1	0.0	0.0	0.0	0.0	101	1.03	-5.7	525.0	1	1.048	0.95				
	67	1	0.24	0.0	0.0	-180.0	201	0.952	-6.5	69.0	1	1.05	0.95				
	68	1	0.0	0.0	0.0	0.0	201	1.015	-6.5	991.0	1	1.9	0.4				
	69	1	0.0	0.0	0.0	-330.0	201	1.007	-0.8700000000000001	765.0	1	1.046	0.9				
	70	1	0.0	0.0	0.0	-330.0	201	1.007	-0.8700000000000001	765.0	1	1.046	0.9				
	71	1	0.0	0.0	0.0	-330.0	201	1.007	-0.89	765.0	1	1.046	0.9				
	72	1	0.0	0.0	0.0	-1320.0	201	1.032	-3.6	765.0	1	1.046	0.9				
	73	1	0.0	0.0	0.0	0.0	201	1.011	-2.0	765.0	1	1.046	0.9				
	74	1	0.0	0.0	0.0	0.0	201	1.011	-2.0	765.0	1	1.046	0.9				
	75	1	0.0	0.0	0.0	0.0	201	1.008	-2.1	765.0	1	1.046	0.9				
	76	1	0.0	0.0	0.0	-990.0	201	0.973	-5.1	765.0	1	1.046	0.9				
	77	1	0.0	0.0	0.0	0.0	202	1.06	-2.1	500.0	1	1.1	1.0				
	78	1	0.0	0.0	0.0	0.0	204	1.017	-9.6	345.0	1	1.05	0.95				
	79	1	0.0	0.0	0.0	0.0	201	0.98	-2.0	69.0	1	1.9	0.4				
	80	1	0.0	0.0	0.0	0.0	201	0.98	-2.0	991.0	1	1.9	0.4				
	81	1	0.0	0.0	0.0	0.0	201	0.949	-10.0	991.0	1	1.9	0.4				
	82	1	0.0	0.0	0.0	0.0	204	1.017	-9.5	345.0	1	1.05	0.95				
	84	1	0.0	0.0	0.0	0.0	255	1.003	4.83	138.0	1	1.05	0.95				
	85	1	60.0	0.0	0.0	1540.0	241	1.06	-179.0	500.0	1	1.1	1.0				
	86	1	0.0	0.0	0.0	1566.6	204	1.025	-8.1	345.0	1	1.05	0.95				
	87	1	0.0	0.0	0.0	0.0	251	1.072	6.8	500.0	1	1.1	1.0				
	90	1	0.0	0.0	0.0	-60.0	302	1.028	10.7	345.0	1	1.05	0.95				
	91	1	0.0	0.0	0.0	0.0	302	1.021	8.34	13.8	1	1.9	0.4				
	92	1	0.0	0.0	0.0	-73.0	511	1.056	31.8	500.0	1	1.1	1.0				
	93	1	0.0	0.0	0.0	-136.0	511	1.065	32.8	500.0	1	1.1	1.0				
	94	1	0.0	0.0	0.0	-136.0	511	1.067	32.4	500.0	1	1.1	1.0				
	95	1	0.0	0.0	0.0	0.0	302	1.021	8.33	13.8	1	1.9	0.4				
	96	1	0.0	0.0	0.0	0.0	302	1.021	8.32	13.8	1	1.9	0.4				
	99	1	0.0	0.0	0.0	0.0	202	1.078	6.46	500.0	1	1.1	1.0				
	100	1	0.0	0.0	0.0	-300.0	351	1.041	24.4	500.0	1	1.1	1.0				
	101	1	0.0	0.0	0.0	-365.47	202	1.058	14.600000000000001	500.0	1	1.1	1.0				
	102	1	0.0	0.0	0.0	-136.0	351	1.046	9.83	500.0	1	1.1	1.0				
	103	1	0.0	0.0	0.0	0.0	202	1.045	-0.23	500.0	1	1.1	1.0				
	104	1	0.0	0.0	0.0	-752.0	202	1.075	6.51	500.0	1	1.1	1.0				
	105	1	0.0	0.0	0.0	0.0	251	1.063	11.5	500.0	1	1.1	1.0				
	106	1	0.0	0.0	0.0	0.0	251	1.064	7.650000000000001	500.0	1	1.1	1.0				
	107	1	0.0	0.0	0.0	0.0	251	1.062	5.6	500.0	1	1.1	1.0				
	108	1	0.0	0.0	0.0	0.0	251	1.058	7.11	500.0	1	1.1	1.0				
	109	1	0.0	0.0	0.0	0.0	251	1.064	7.650000000000001	500.0	1	1.1	1.0				
	110	1	0.0	0.0	0.0	0.0	251	1.014	1.8900000000000001	991.0	1	1.9	0.4				
	112	1	0.0	0.0	0.0	-136.0	101	1.079	-16.0	500.0	1	1.1	1.0				
	113	1	0.0	0.0	0.0	-136.0	101	1.079	-16.0	500.0	1	1.1	1.0				
	114	1	0.0	0.0	0.0	0.0	101	1.079	-16.0	500.0	1	1.1	1.0				
	115	1	0.0	0.0	0.0	-81.6	202	1.088	-28.0	500.0	1	1.1	1.0				
	116	1	0.0	0.0	0.0	0.0	256	1.006	2.37	138.0	1	1.05	0.95				
	118	1	0.0	0.0	0.0	0.0	512	0.997	29.4	991.0	1	1.9	0.4				
	119	1	0.0	0.0	0.0	0.0	512	0.997	29.4	13.8	1	1.9	0.4				
	120	1	0.0	0.0	0.0	0.0	352	1.027	3.3	345.0	1	1.05	0.95				
	121	1	0.0	0.0	0.0	0.0	351	0.914	1.75	991.0	1	1.9	0.4				
	122	1	0.0	0.0	0.0	-180.0	202	1.07	-8.7	500.0	1	1.1	1.0				
	123	1	0.0	0.0	0.0	0.0	204	1.015	-4.2	345.0	1	1.05	0.95				
	124	1	0.0	0.0	0.0	0.0	202	0.991	-5.0	991.0	1	1.9	0.4				
	125	1	0.0	0.0	0.0	-87.0	202	0.999	-1.3	500.0	1	1.1	1.0				
	126	1	0.0	0.0	0.0	100.0	204	1.009	-12.000000000000002	345.0	1	1.05	0.95				
	127	1	0.0	0.0	0.0	0.0	204	1.011	-10.0	345.0	1	1.05	0.95				
	128	1	0.0	0.0	0.0	0.0	204	1.011	-10.0	345.0	1	1.05	0.95				
	129	1	0.0	0.0	0.0	0.0	204	1.006	-10.0	345.0	1	1.05	0.95				
	130	1	0.0	0.0	0.0	-87.0	202	0.999	-1.3	500.0	1	1.1	1.0				
	131	1	0.0	0.0	0.0	0.0	352	1.021	17.6	345.0	1	1.05	0.95				
	133	1	0.0	0.0	0.0	0.0	252	1.037	3.8900000000000006	991.0	1	1.9	0.4				
	134	1	0.0	0.0	0.0	0.0	204	1.016	18.8	345.0	1	1.05	0.95				
	135	1	0.0	0.0	0.0	0.0	252	0.992	1.72	991.0	1	1.9	0.4				
	136	1	0.0	0.0	0.0	0.0	352	1.024	13.4	345.0	1	1.05	0.95				
	137	1	0.0	0.0	0.0	0.0	252	0.992	1.72	991.0	1	1.9	0.4				
	138	1	0.0	0.0	0.0	-160.0	352	1.028	5.37	345.0	1	1.05	0.95				
	139	1	0.0	0.0	0.0	0.0	251	1.004	6.41	991.0	1	1.9	0.4				
	140	1	0.0	0.0	0.0	0.0	252	1.035	6.23	345.0	1	1.05	0.95				
	141	1	0.0	0.0	0.0	0.0	251	1.0	5.83	991.0	1	1.9	0.4				
	142	1	0.0	0.0	0.0	0.0	251	1.0	5.91	991.0	1	1.9	0.4				
	143	1	0.0	0.0	0.0	0.0	252	1.037	3.91	991.0	1	1.9	0.4				
	144	1	0.0	0.0	0.0	0.0	252	1.016	4.41	345.0	1	1.05	0.95				
	145	1	0.0	0.0	0.0	0.0	252	1.038	3.8200000000000003	991.0	1	1.9	0.4				
	146	1	0.0	0.0	0.0	0.0	252	1.037	3.86	991.0	1	1.9	0.4				
	147	1	0.0	0.0	0.0	-60.0	252	1.025	16.5	345.0	1	1.05	0.95				
	148	1	0.0	0.0	0.0	0.0	252	1.02	12.3	991.0	1	1.9	0.4				
	149	1	0.0	0.0	0.0	-120.0	302	1.024	8.95	345.0	1	1.05	0.95				
	150	1	0.0	0.0	0.0	0.0	302	1.022	6.12	991.0	1	1.9	0.4				
	152	1	0.0	0.0	0.0	0.0	302	1.022	6.14	991.0	1	1.9	0.4				
	153	1	0.0	0.0	0.0	0.0	302	1.022	6.000000000000001	991.0	1	1.9	0.4				
	154	1	0.0	0.0	0.0	0.0	302	1.022	6.14	13.8	1	1.9	0.4				
	155	1	0.0	0.0	0.0	0.0	302	1.022	6.000000000000001	13.8	1	1.9	0.4				
	156	1	0.0	0.0	0.0	0.0	302	1.021	6.27	13.8	1	1.9	0.4				
	158	1	0.0	0.0	0.0	0.0	302	1.021	6.27	991.0	1	1.9	0.4				
	159	1	0.0	0.0	0.0	0.0	252	0.992	1.72	13.8	1	1.9	0.4				
	160	1	0.0	0.0	0.0	0.0	252	0.991	1.63	13.8	1	1.9	0.4				
	161	1	0.0	0.0	0.0	0.0	205	1.019	-10.0	230.0	1	1.05	0.95				
	162	1	0.0	0.0	0.0	0.0	207	1.011	-6.6	991.0	1	1.9	0.4				
	163	1	0.0	0.0	0.0	0.0	207	1.011	-6.6	13.8	1	1.9	0.4				
	164	1	0.0	0.0	0.0	0.0	352	1.026	0.662	991.0	1	1.9	0.4				
	165	1	0.0	0.0	0.0	-25.0	352	0.994	0.662	13.8	1	1.9	0.4				
	166	1	0.0	0.0	0.0	0.0	252	0.991	1.63	991.0	1	1.9	0.4				
	167	1	0.0	0.0	0.0	0.0	252	0.992	1.72	13.8	1	1.9	0.4				
	169	1	0.0	0.0	0.0	0.0	254	1.015	5.48	138.0	1	1.05	0.95				
	170	1	0.0	0.0	0.0	0.0	359	1.025	1.02	138.0	1	1.05	0.95				
	171	1	1.01	0.0	0.0	0.0	207	0.991	-6.9	138.0	1	1.05	0.95				
	172	1	0.0	0.0	0.0	0.0	256	1.003	3.8900000000000006	138.0	1	1.05	0.95				
	173	1	0.0	0.0	0.0	0.0	256	1.015	3.94	138.0	1	1.05	0.95				
	174	1	0.0	0.0	0.0	150.0	258	1.025	0.194	138.0	1	1.05	0.95				
	175	1	0.25	0.0	0.0	50.0	259	1.03	12.5	138.0	1	1.05	0.95				
	176	1	0.0	0.0	0.0	0.0	202	0.991	-4.8	991.0	1	1.9	0.4				
	177	1	0.0	0.0	0.0	0.0	304	1.005	6.42	138.0	1	1.05	0.95				
	178	1	0.0	0.0	0.0	0.0	254	1.005	2.12	138.0	1	1.05	0.95				
	179	1	0.0	0.0	0.0	0.0	251	1.014	1.9100000000000001	991.0	1	1.9	0.4				
	180	1	0.0	0.0	0.0	200.0	254	1.027	1.86	138.0	1	1.05	0.95				
	181	1	0.0	0.0	0.0	0.0	255	1.01	5.12	138.0	1	1.05	0.95				
	182	1	0.0	0.0	0.0	0.0	255	1.014	3.11	138.0	1	1.05	0.95				
	183	1	0.0	0.0	0.0	0.0	214	0.965	5.59	138.0	1	1.05	0.95				
	184	1	0.0	0.0	0.0	0.0	254	1.012	4.99	138.0	1	1.05	0.95				
	185	1	3.0	0.0	0.0	25.0	255	1.013	14.999999999999998	138.0	1	1.05	0.95				
	186	1	0.0	0.0	0.0	0.0	202	0.991	-4.8	13.8	1	1.9	0.4				
	187	1	0.0	0.0	0.0	0.0	358	1.07	15.5	138.0	1	1.05	0.95				
	189	1	0.0	0.0	0.0	0.0	563	1.001	26.3	991.0	1	1.9	0.4				
	190	1	0.0	0.0	0.0	0.0	208	1.024	18.400000000000002	138.0	1	1.05	0.95				
	192	1	0.0	0.0	0.0	0.0	252	1.02	12.3	13.8	1	1.9	0.4				
	194	1	0.0	0.0	0.0	0.0	251	1.0	5.91	13.8	1	1.9	0.4				
	195	1	0.0	0.0	0.0	0.0	251	1.0	5.83	13.8	1	1.9	0.4				
	196	1	0.0	0.0	0.0	0.0	202	0.991	-5.0	13.8	1	1.9	0.4				
	197	1	0.0	0.0	0.0	0.0	251	1.004	6.41	13.8	1	1.9	0.4				
	198	1	0.0	0.0	0.0	0.0	351	0.914	1.75	13.8	1	1.9	0.4				
	199	1	0.0	0.0	0.0	0.0	302	1.022	6.12	13.8	1	1.9	0.4				
	200	1	0.0	0.0	0.0	0.0	259	1.006	9.7	991.0	1	1.9	0.4				
	201	2	1.16	0.0	0.0	0.0	259	1.016	9.32	992.0	1	1.05	0.95				
	202	1	0.0	0.0	0.0	0.0	259	1.006	9.7	991.0	1	1.9	0.4				
	203	2	1.16	0.0	0.0	0.0	259	1.016	9.32	992.0	1	1.05	0.95				
	204	1	0.0	0.0	0.0	0.0	252	1.038	3.8200000000000003	13.8	1	1.9	0.4				
	205	1	0.0	0.0	0.0	50.0	252	1.082	3.86	13.8	1	1.9	0.4				
	206	1	0.0	0.0	0.0	50.0	252	1.082	3.91	13.8	1	1.9	0.4				
	208	1	0.0	0.0	0.0	0.0	563	1.001	26.3	13.8	1	1.9	0.4				
	209	1	0.0	0.0	0.0	0.0	252	1.037	3.8900000000000006	13.8	1	1.9	0.4				
	210	1	0.0	0.0	0.0	-342.0	351	1.058	33.5	500.0	1	1.1	1.0				
	211	1	0.0	0.0	0.0	0.0	252	1.02	12.2	991.0	1	1.9	0.4				
	212	1	0.0	0.0	0.0	0.0	252	1.02	12.2	13.8	1	1.9	0.4				
	213	1	0.0	0.0	0.0	0.0	352	1.025	25.1	345.0	1	1.05	0.95				
	214	1	0.0	0.0	0.0	0.0	351	1.027	25.3	991.0	1	1.9	0.4				
	216	1	0.0	0.0	0.0	0.0	352	1.031	25.8	345.0	1	1.05	0.95				
	217	1	0.0	0.0	0.0	-96.0	352	1.021	33.3	345.0	1	1.05	0.95				
	218	1	0.0	0.0	0.0	0.0	512	1.016	31.2	345.0	1	1.05	0.95				
	219	1	0.0	0.0	0.0	-60.0	562	1.037	33.9	345.0	1	1.05	0.95				
	220	1	0.0	0.0	0.0	0.0	512	1.044	35.2	345.0	1	1.05	0.95				
	221	1	0.0	0.0	0.0	0.0	564	1.001	26.6	34.5	1	1.05	0.95				
	222	1	0.0	0.0	0.0	0.0	562	1.039	31.6	991.0	1	1.9	0.4				
	223	1	0.0	0.0	0.0	0.0	512	0.996	29.300000000000004	991.0	1	1.9	0.4				
	224	1	0.0	0.0	0.0	0.0	512	0.994	29.200000000000003	991.0	1	1.9	0.4				
	225	1	0.0	0.0	0.0	0.0	353	1.025	34.0	230.0	1	1.05	0.95				
	226	1	0.0	0.0	0.0	0.0	513	1.023	29.600000000000005	230.0	1	1.05	0.95				
	227	1	0.0	0.0	0.0	0.0	563	1.038	31.8	230.0	1	1.05	0.95				
	228	1	0.0	0.0	0.0	0.0	563	1.039	32.0	230.0	1	1.05	0.95				
	229	1	0.0	0.0	0.0	55.39999999999999	513	1.042	25.700000000000003	230.0	1	1.05	0.95				
	230	1	0.0	0.0	0.0	0.0	513	0.974	41.4	230.0	1	1.05	0.95				
	231	1	0.0	0.0	0.0	-45.0	513	1.032	34.8	230.0	1	1.05	0.95				
	232	1	0.0	0.0	0.0	0.0	562	1.039	31.6	13.8	1	1.9	0.4				
	233	1	0.0	0.0	0.0	-283.0	561	1.056	36.4	500.0	1	1.1	1.0				
	234	1	0.0	0.0	0.0	0.0	562	1.039	34.6	345.0	1	1.05	0.95				
	235	1	0.0	0.0	0.0	-481.50000000000006	511	1.042	40.9	500.0	1	1.1	1.0				
	236	1	0.8100000000000002	0.0	0.0	0.0	564	1.003	30.7	138.0	1	1.05	0.95				
	237	1	0.0	0.0	0.0	0.0	564	1.002	33.0	138.0	1	1.05	0.95				
	238	1	0.13	0.0	0.0	0.0	517	1.026	33.8	138.0	1	1.05	0.95				
	239	1	0.0	0.0	0.0	0.0	518	1.05	39.2	138.0	1	1.05	0.95				
	240	1	0.0	0.0	0.0	0.0	513	0.983	33.6	991.0	1	1.9	0.4				
...
];

%% generator data
%    bus    Pg    Qg    Qmax    Qmin    Vg    mBase    status    Pmax    Pmin    Pc1    Pc2    Qc1min    Qc1max    Qc2min    Qc2max    ramp_agc    ramp_10    ramp_30    ramp_q    apf
mpc.gen = [
	10251	5.5	0.0	0.0	0.0	1.045	100.0	0	99999.0	0.0															
	5031	0.0	0.0	0.0	0.0	0.973	100.0	1	99999.0	0.0															
	1863	25.0	-7.21	8.6	-8.6	1.013	100.0	1	25.0	0.0															
	2631	5.3	0.0	0.0	0.0	1.004	100.0	0	99999.0	0.0															
	7064	1678.0	495.6	799.2	-799.0	1.048	100.0	1	1678.0	0.0															
	3153	37.1	2.1	0.0	0.0	0.965	100.0	0	99999.0	0.0															
	17	0.0	0.0	0.0	0.0	0.96	100.0	1	99999.0	0.0															
	6057	58.5	-4.88	37.2	-37.2	0.996	100.0	1	58.5	0.0															
	4335	4.0	0.0	0.0	0.0	0.981	100.0	0	99999.0	0.0															
	5805	18.9	-2.56	14.400000000000002	-14.400000000000002	0.998	100.0	1	18.9	0.0															
	6423	0.0	-142.0	175.0	-280.0	0.988	100.0	1	99999.0	0.0															
	14	111.00000000000001	-3.8599999999999994	100.0	-100.0	1.01	100.0	1	222.00000000000003	0.0															
	510	955.0000000000001	-260.0	405.0	-405.0	1.0	100.0	1	955.0000000000001	0.0															
	3963	282.0	0.4988	180.0	-110.00000000000001	1.01	100.0	1	291.0	0.0															
	21	86.0	-28.7	42.0	-40.0	0.95	100.0	1	108.0	0.0															
	871	4.0	0.0	0.0	0.0	0.995	100.0	0	99999.0	0.0															
	6016	6.2	-1.5700000000000003	7.6	-7.6	0.995	100.0	1	6.2	0.0															
	6598	3.9	0.0	0.0	0.0	1.028	100.0	0	99999.0	0.0															
	2276	5.5	0.0	0.0	0.0	0.959	100.0	0	99999.0	0.0															
	8746	7.200000000000001	3.45	9.0	-9.0	0.992	100.0	1	7.200000000000001	0.0															
	751	70.0	-21.0	50.0	-50.0	0.962	100.0	1	108.0	0.0															
	1070	150.0	58.96	70.0	-70.0	1.035	100.0	1	855.1999999999999	0.0															
	3749	30.0	0.0	0.0	0.0	0.998	100.0	0	99999.0	0.0															
	8129	16.3	-4.66	14.3	-12.5	0.998	100.0	1	16.3	0.0															
	7199	34.7	-5.21	26.8	-26.8	0.999	100.0	1	34.7	0.0															
	1166	20.0	2.502	21.0	-15.0	1.0	100.0	1	129.0	0.0															
	2863	23.0	-14.000000000000002	44.0	-44.0	0.976	100.0	1	190.0	0.0															
	6343	17.8	0.0	0.0	0.0	0.97	100.0	0	99999.0	0.0															
	9126	13.4	0.0	0.0	0.0	1.04	100.0	1	99999.0	0.0															
	8376	129.6	-0.208	103.1	-81.3	0.983	100.0	1	129.6	0.0															
	5051	360.0	-106.0	250.0	-240.0	1.005	100.0	1	459.99999999999994	0.0															
	6164	94.5	8.053	49.2	-49.2	0.994	100.0	1	94.5	0.0															
	3744	21.0	-8.36	10.32	-10.3	0.985	100.0	1	32.01	0.0															
	6129	37.8	0.5832	19.6	-19.6	0.999	100.0	1	37.8	0.0															
	1704	4.7	0.0	0.0	0.0	0.991	100.0	0	99999.0	0.0															
	9598	2.1	0.0	0.0	0.0	1.014	100.0	0	99999.0	0.0															
	6133	73.6	0.0	0.0	0.0	0.962	100.0	0	99999.0	0.0															
	10232	4.0	0.0	0.0	0.0	1.027	100.0	0	99999.0	0.0															
	1023	0.4	0.0	0.0	0.0	0.996	100.0	0	99999.0	0.0															
	7916	15.1	-8.42	8.8	-15.299999999999999	0.982	100.0	1	15.1	0.0															
	1566	9.6	0.0	0.0	0.0	1.011	100.0	0	99999.0	0.0															
	315	0.0	-10.2	30.0	-15.0	0.994	100.0	1	99999.0	0.0															
	841	0.4	0.0	0.0	0.0	0.996	100.0	0	99999.0	0.0															
	4802	11.5	-6.38	9.396	-6.38	1.008	100.0	1	11.5	0.0															
	984	6.0	-1.3	4.0	-5.0	1.0	100.0	1	11.4	0.0															
	9451	0.0	0.0	0.0	0.0	1.007	100.0	1	99999.0	0.0															
	3104	18.4	0.0	0.0	0.0	0.967	100.0	0	99999.0	0.0															
	7246	30.7	-1.5	0.0	0.0	0.971	100.0	0	99999.0	0.0															
	1176	32.0	-1.91	26.0	-33.0	1.0	100.0	1	125.0	0.0															
	8727	34.0	-12.6	48.0	-48.0	0.992	100.0	1	34.0	0.0															
	8911	85.0	-4.36	65.0	-65.0	1.02	100.0	1	99999.0	0.0															
	2733	6.800000000000001	0.0	0.0	0.0	1.021	100.0	0	99999.0	0.0															
	5803	31.0	0.0	0.0	0.0	1.005	100.0	0	99999.0	0.0															
	9067	0.8	0.0	0.0	0.0	0.997	100.0	0	99999.0	0.0															
	9734	7.5	-4.8	0.0	0.0	1.017	100.0	0	99999.0	0.0															
	2918	9.5	0.0	0.0	0.0	1.003	100.0	1	99999.0	0.0															
	2917	6.5	0.0	0.0	0.0	1.001	100.0	1	99999.0	0.0															
	4010	1.0	0.0	0.0	0.0	0.959	100.0	0	99999.0	0.0															
	44322	22.0	1.556	30.0	-8.4	0.963	100.0	1	99999.0	0.0															
	1774	1.7000000000000002	0.0	0.0	0.0	0.98	100.0	0	99999.0	0.0															
	6073	48.1	9.979	122.09999999999998	-122.0	0.987	100.0	1	48.1	0.0															
	1189	0.5	0.0	0.0	0.0	1.024	100.0	0	99999.0	0.0															
	7206	630.0	-95.1	227.99999999999997	-227.99999999999997	0.996	100.0	1	900.0	0.0															
	6742	37.8	-0.747	19.6	-19.6	1.0	100.0	1	37.8	0.0															
	44323	142.0	12.4	90.0	-31.8	0.963	100.0	1	99999.0	0.0															
	1501	64.0	35.1	44.0	-44.0	1.004	100.0	1	88.0	0.0															
	4834	27.6	0.0	0.0	0.0	1.001	100.0	1	99999.0	0.0															
	1594	59.0	23.06	37.2	-40.0	1.02	100.0	1	117.8	0.0															
	2601	13.100000000000001	4.925	7.6	-7.6	0.983	100.0	1	15.8	0.0															
	4061	23.9	0.0	0.0	0.0	1.053	100.0	0	99999.0	0.0															
	6074	23.2	7.987	17.5	-25.1	1.001	100.0	1	23.2	0.0															
	7509	6.3	3.1	3.1	-2.1	1.041	100.0	1	6.3	0.0															
	922	0.0	0.0	0.0	0.0	0.96	100.0	1	99999.0	0.0															
	8607	14.6	-8.42	25.900000000000002	-25.900000000000002	0.988	100.0	1	14.6	0.0															
	9784	22.0	-6.480000000000001	13.5	-9.2	1.006	100.0	1	22.0	0.0															
	8015	20.7	-6.0	13.100000000000001	-13.100000000000001	0.998	100.0	1	20.7	0.0															
	3197	0.8	-0.3	0.0	0.0	1.0	100.0	0	99999.0	0.0															
	10119	30.0	-20.6	48.0	-48.0	0.999	100.0	1	30.0	0.0															
	8724	31.900000000000002	-26.899999999999995	45.6	-45.6	0.984	100.0	1	31.900000000000002	0.0															
	8071	20.7	4.14	37.0	-37.0	1.0	100.0	1	20.7	0.0															
	3525	62.0	2.328	47.4	-17.0	1.02	100.0	1	99999.0	0.0															
	8612	30.0	14.87	26.700000000000003	-19.3	1.01	100.0	1	32.82	0.0															
	6027	0.0	0.0	0.0	0.0	0.992	100.0	1	99999.0	0.0															
	5744	16.4	2.114	22.1	-22.1	0.992	100.0	1	16.4	0.0															
	3465	9.1	0.0	0.0	0.0	1.0	100.0	0	99999.0	0.0															
	4525	38.0	3.1850000000000005	23.8	-37.0	1.01	100.0	1	47.6	0.0															
	6711	42.5	-10.3	26.5	-26.5	0.998	100.0	1	42.5	0.0															
	6372	31.4	-0.006	0.0	-26.5	0.977	100.0	1	31.4	0.0															
	4073	1.3	0.0	0.0	0.0	1.011	100.0	0	99999.0	0.0															
	9328	3.1	0.0	0.0	0.0	1.0	100.0	0	99999.0	0.0															
	3524	62.0	2.321	47.4	-17.0	1.02	100.0	1	99999.0	0.0															
	8950	63.2	-6.9	15.5	-15.5	1.024	100.0	1	63.2	0.0															
	8686	29.100000000000005	3.086	15.2	-15.2	1.001	100.0	1	29.100000000000005	0.0															
	4692	1.7000000000000002	0.0	0.0	0.0	1.005	100.0	1	99999.0	0.0															
	4520	53.0	-9.61	20.0	-19.3	1.01	100.0	1	58.70000000000001	0.0															
	5078	66.1	-8.43	34.5	-34.5	1.0	100.0	1	66.1	0.0															
	9625	29.2	0.0	0.0	0.0	1.002	100.0	0	99999.0	0.0															
	1528	10.6	0.0	0.0	0.0	1.008	100.0	0	99999.0	0.0															
	6347	0.0	6.895	30.0	-15.0	0.999	100.0	1	99999.0	0.0															
	8651	11.7	-12.3	23.2	-21.9	0.996	100.0	1	11.7	0.0															
	2716	7.200000000000001	0.0	0.0	0.0	1.015	100.0	0	99999.0	0.0															
	2851	2.5	0.0	0.0	0.0	0.991	100.0	0	99999.0	0.0															
	4631	22.1	0.0	0.0	0.0	1.034	100.0	1	99999.0	0.0															
	526	43.0	-3.17	26.0	-26.0	1.02	100.0	1	86.0	0.0															
	5218	167.0	2.163	128.0	-128.0	0.944	100.0	1	99999.0	0.0															
	1707	0.2	0.0	0.0	0.0	0.974	100.0	0	99999.0	0.0															
	516	87.0	33.8	42.0	-42.0	1.025	100.0	1	140.8	0.0															
	6597	5.8	0.0	0.0	0.0	1.029	100.0	0	99999.0	0.0															
	3162	14.800000000000002	0.0	0.0	0.0	0.99	100.0	0	99999.0	0.0															
	9558	2.0	0.3	0.0	0.0	0.999	100.0	0	99999.0	0.0															
	9455	0.0	0.0	0.0	0.0	1.037	100.0	1	99999.0	0.0															
	9732	7.5	-4.8	0.0	0.0	1.018	100.0	0	99999.0	0.0															
	5653	55.89999999999999	0.0	0.0	0.0	0.998	100.0	0	99999.0	0.0															
	3455	0.8	0.1	0.0	0.0	1.0	100.0	0	99999.0	0.0															
	3547	25.0	0.0	0.0	0.0	0.98	100.0	1	99999.0	0.0															
	5032	0.0	0.0	0.0	0.0	0.976	100.0	1	99999.0	0.0															
	10157	15.0	-4.16	9.0	-9.0	0.991	100.0	1	15.0	0.0															
	4827	3.4000000000000004	0.0	0.0	0.0	0.979	100.0	0	99999.0	0.0															
	4489	434.0	129.1	254.1	-204.0	1.03	100.0	1	434.0	0.0															
	32	340.0	-28.000000000000004	220.00000000000003	-180.0	0.996	100.0	1	99999.0	0.0															
	8309	38.0	-0.12	19.9	-19.9	0.996	100.0	1	38.0	0.0															
	8485	20.7	-0.234	11.9	-11.9	1.001	100.0	1	20.7	0.0															
	340	0.5	0.0	0.0	0.0	1.021	100.0	0	99999.0	0.0															
	6618	8.5	-1.24	10.4	-10.4	0.991	100.0	1	8.5	0.0															
	7340	0.5	0.0	0.0	0.0	0.995	100.0	0	99999.0	0.0															
	3783	16.0	0.0	0.0	0.0	1.019	100.0	0	99999.0	0.0															
	836	14.2	0.0	0.0	0.0	1.023	100.0	0	99999.0	0.0															
	4878	2.6	0.0	0.0	0.0	0.944	100.0	0	99999.0	0.0															
	9923	2.9	0.0	0.0	0.0	0.962	100.0	0	99999.0	0.0															
	6593	5.4	0.0	0.0	0.0	1.0	100.0	0	99999.0	0.0															
	37	0.0	-250.0	574.0	-830.0000000000001	0.96	100.0	1	99999.0	0.0															
	4403	5.4	0.0	0.0	0.0	1.044	100.0	1	99999.0	0.0															
	2031	27.0	6.389	14.400000000000002	-15.6	1.03	100.0	1	44.4	0.0															
	2449	36.5	0.0	0.0	0.0	1.003	100.0	0	99999.0	0.0															
	7072	30.0	0.0	0.0	0.0	1.052	100.0	0	99999.0	0.0															
	10012	36.0	-6.6000000000000005	0.0	0.0	1.008	100.0	0	99999.0	0.0															
	5012	0.0	0.0	0.0	0.0	1.02	100.0	1	99999.0	0.0															
	2254	0.4	0.0	0.0	0.0	0.9	100.0	0	99999.0	0.0															
	4190	25.5	0.0	0.0	0.0	1.022	100.0	0	99999.0	0.0															
	10314	6.800000000000001	0.0	0.0	0.0	1.001	100.0	0	99999.0	0.0															
	4911	1.3	0.0	0.0	0.0	1.039	100.0	1	99999.0	0.0															
	513	326.0	-112.00000000000001	192.0	-192.0	1.01	100.0	1	420.0	0.0															
	1851	1.2	0.0	0.0	0.0	1.0	100.0	0	99999.0	0.0															
	2818	10.9	0.0	0.0	0.0	1.022	100.0	0	99999.0	0.0															
	2622	2.1	0.0	0.0	0.0	1.003	100.0	0	99999.0	0.0															
	9100	155.0	75.34	120.0	-120.0	1.031	100.0	1	160.0	0.0															
	4788	4.0	-1.56	2.42	-1.6	0.972	100.0	1	4.0	0.0															
	806	35.0	-4.23	28.999999999999996	-28.999999999999996	0.99	100.0	1	122.0	0.0															
	2977	18.0	0.0	0.0	0.0	0.98	100.0	0	99999.0	0.0															
	4698	2.8	0.0	0.0	0.0	0.977	100.0	1	99999.0	0.0															
	1155	75.0	-3.39	61.0	-60.0	1.0	100.0	1	500.0	0.0															
	44075	0.0	-43.4	100.0	-70.0	0.973	100.0	1	99999.0	0.0															
	3563	0.0	0.0	0.0	0.0	1.024	100.0	1	99999.0	0.0															
	9948	2.5	-2.0	0.0	0.0	1.035	100.0	0	99999.0	0.0															
	8229	9.5	-6.72	12.8	-12.8	0.996	100.0	1	9.5	0.0															
	921	129.0	27.97	62.0	-45.0	1.035	100.0	1	355.0	0.0															
	6812	10.0	2.0	0.0	0.0	1.05	100.0	0	99999.0	0.0															
	2350	18.0	0.0	0.0	0.0	0.969	100.0	0	99999.0	0.0															
	5771	0.0	0.0	0.0	0.0	0.973	100.0	1	99999.0	0.0															
	304	195.0	-39.8	45.0	-45.0	0.986	100.0	1	195.0	0.0															
	6688	17.1	-0.8329999999999999	9.0	-9.0	0.998	100.0	1	17.1	0.0															
	6422	270.0	-4.27	105.0	-105.0	0.98	100.0	1	1400.0	0.0															
	6550	14.7	-1.1	17.9	-17.9	0.991	100.0	1	14.7	0.0															
	809	0.0	10.46	165.0	-250.0	1.0	100.0	1	99999.0	0.0															
	8904	78.8	25.16	96.0	-60.0	0.977	100.0	1	108.0	0.0															
	1125	9.0	0.0	0.0	0.0	1.009	100.0	0	99999.0	0.0															
	2803	2.6	0.0	0.0	0.0	1.025	100.0	0	99999.0	0.0															
	1284	1.8000000000000003	0.0	0.0	0.0	0.999	100.0	0	99999.0	0.0															
	505	110.00000000000001	72.0	72.0	-72.0	1.05	100.0	1	177.0	0.0															
	4222	19.8	0.0	0.0	0.0	1.016	100.0	0	99999.0	0.0															
	5463	18.8	0.0	0.0	0.0	1.002	100.0	0	99999.0	0.0															
	8442	63.5	-3.8900000000000006	47.8	-35.8	0.997	100.0	1	63.5	0.0															
	4691	0.8	0.0	0.0	0.0	1.006	100.0	1	99999.0	0.0															
	8080	10.3	3.759	18.5	-18.5	1.002	100.0	1	10.3	0.0															
	4513	2.3	0.0	0.0	0.0	0.935	100.0	0	99999.0	0.0															
	6424	825.0	-354.0	354.0	-354.0	0.976	100.0	1	1560.0	0.0															
	5900	79.5	7.682	121.0	-121.0	1.05	100.0	1	79.5	0.0															
	4710	0.7	0.0	0.0	0.0	1.009	100.0	0	99999.0	0.0															
	6317	30.0	0.0	0.0	0.0	0.966	100.0	0	99999.0	0.0															
	3957	2.9	0.0	0.0	0.0	1.01	100.0	0	99999.0	0.0															
	5957	91.1	-71.2	76.6	-76.6	0.99	100.0	1	91.1	0.0															
	6042	17.1	-1.47	12.1	-15.4	0.996	100.0	1	17.1	0.0															
	5764	0.0	0.0	0.0	0.0	0.986	100.0	1	99999.0	0.0															
	7619	14.2	0.0	0.0	0.0	1.022	100.0	0	99999.0	0.0															
	6136	7.5	3.6029999999999998	5.8	-5.8	0.999	100.0	1	7.5	0.0															
	2754	12.0	0.0	0.0	0.0	0.999	100.0	0	99999.0	0.0															
	1750	0.5	0.0	0.0	0.0	0.992	100.0	0	99999.0	0.0															
	503	137.0	-81.2	96.0	-96.0	0.95	100.0	1	221.59999999999997	0.0															
	2870	17.9	0.0	0.0	0.0	1.008	100.0	0	99999.0	0.0															
	3154	0.1	0.5	0.0	0.0	0.982	100.0	0	99999.0	0.0															
	5243	0.0	5.307	40.0	0.0	1.029	100.0	1	99999.0	0.0															
	5315	30.2	8.404	17.7	-17.7	1.006	100.0	1	30.2	0.0															
	6232	28.199999999999996	-0.62	24.1	-31.8	0.995	100.0	1	28.199999999999996	0.0															
	5006	0.0	0.0	0.0	0.0	1.023	100.0	1	99999.0	0.0															
	6022	66.0	2.931	50.4	-21.0	0.992	100.0	1	99999.0	0.0															
	6028	0.0	0.0	0.0	0.0	0.992	100.0	1	99999.0	0.0															
	4336	2.6	0.0	0.0	0.0	1.022	100.0	0	99999.0	0.0															
	9521	0.0	0.0	0.0	0.0	0.923	100.0	1	99999.0	0.0															
	9034	0.0	0.0	0.0	0.0	0.96	100.0	1	99999.0	0.0															
	9650	6.2	0.0	0.0	0.0	0.999	100.0	0	99999.0	0.0															
...
];

%% branch data
%    f_bus    t_bus    r    x    b    rateA    rateB    rateC    ratio    angle    status    angmin    angmax
mpc.branch = [
	3096	2689	0.1796	0.267	0.00378	54.0	54.0	54.0	0	0	1	-59.99999999999999	59.99999999999999								
	8922	8924	0.0	0.26686	0.0	0.0	0.0	0.0	0	0	1	-59.99999999999999	59.99999999999999								
	5761	5762	0.0	0.057800000000000004	0.0	192.0	192.0	192.0	0	0	1	-59.99999999999999	59.99999999999999								
	283	1661	0.0021	0.0034000000000000002	0.10808	103.0	117.0	103.0	0	0	1	-59.99999999999999	59.99999999999999								
	149	90	0.00074	0.00812	0.13644	747.0	747.0	747.0	0	0	1	-59.99999999999999	59.99999999999999								
	8528	8539	1.0e-5	1.0e-5	0.0	150.0	150.0	150.0	0	0	0	-59.99999999999999	59.99999999999999								
	6563	7964	1.0e-5	1.0e-5	0.0	0.0	0.0	0.0	0	0	1	-59.99999999999999	59.99999999999999								
	22002	22010	0.018287	0.035033	0.0088	120.0	140.0	120.0	0	0	1	-59.99999999999999	59.99999999999999								
	781	3774	0.0984	0.20010000000000003	0.0493	103.0	120.0	103.0	0	0	1	-59.99999999999999	59.99999999999999								
	1027	556	0.00091	0.01402	1.7577	2001.0000000000002	2001.0000000000002	2001.0000000000002	0	0	1	-59.99999999999999	59.99999999999999								
	1928	3879	0.2507	0.389	0.005600000000000001	33.0	40.0	33.0	0	0	1	-59.99999999999999	59.99999999999999								
	4713	4712	0.00252	0.01315	0.00813	245.00000000000003	306.0	245.00000000000003	0	0	1	-59.99999999999999	59.99999999999999								
	270	1452	0.0006	0.0040999999999999995	0.00493	478.0	602.0	478.0	0	0	1	-59.99999999999999	59.99999999999999								
	1871	1865	0.022000000000000002	0.0571	0.013879999999999998	97.0	124.0	124.0	0	0	1	-59.99999999999999	59.99999999999999								
	5970	5972	0.0087	0.044199999999999996	0.08259999999999999	250.99999999999997	314.0	314.0	0	0	1	-59.99999999999999	59.99999999999999								
	590	607	0.0043	0.0239	0.08470000000000001	577.0	577.0	577.0	0	0	1	-59.99999999999999	59.99999999999999								
	104	1503	0.00052	0.00792	0.665	1855.0	2337.0	2337.0	0	0	1	-59.99999999999999	59.99999999999999								
	1825	1838	0.40950000000000003	0.5915	0.00853	12.0	12.0	12.0	0	0	1	-59.99999999999999	59.99999999999999								
	674	4159	0.0172	0.0444	0.011000000000000001	0.0	0.0	0.0	0	0	1	-59.99999999999999	59.99999999999999								
	9263	1263	0.00151	0.00832	0.015700000000000002	340.0	398.0	398.0	0	0	1	-59.99999999999999	59.99999999999999								
	5370	5451	0.00049	0.00784	1.1432	1992.0000000000002	1992.0000000000002	1992.0000000000002	0	0	1	-59.99999999999999	59.99999999999999								
	2275	2283	0.0821	0.1284	0.00161	34.0	36.0	34.0	0	0	1	-59.99999999999999	59.99999999999999								
	184	276	0.0083	0.0481	0.013600000000000001	146.0	206.99999999999997	146.0	0	0	1	-59.99999999999999	59.99999999999999								
	4111	170	0.00128	0.00523	0.0014399999999999999	166.0	166.0	166.0	0	0	1	-59.99999999999999	59.99999999999999								
	4130	11970	0.0021	0.00542	0.001346	139.0	163.0	139.0	0	0	0	-59.99999999999999	59.99999999999999								
	410	431	0.00184	0.010726	0.036000000000000004	324.0	445.0	445.0	0	0	1	-59.99999999999999	59.99999999999999								
	8103	8201	0.0021062	0.027326000000000003	4.0258	2719.0	3395.0000000000005	3395.0000000000005	0	0	1	-59.99999999999999	59.99999999999999								
	283	1659	0.0011279999999999999	0.006843	0.2823	160.0	184.0	160.0	0	0	0	-59.99999999999999	59.99999999999999								
	3102	2271	0.042800000000000005	0.11283	0.028140000000000002	103.0	129.0	103.0	0	0	1	-59.99999999999999	59.99999999999999								
	2654	4043	0.0022	0.01091	0.020534	339.0	388.0	388.0	0	0	1	-59.99999999999999	59.99999999999999								
	1536	7333	0.0064	0.011000000000000001	0.0024	73.0	73.0	73.0	0	0	1	-59.99999999999999	59.99999999999999								
	5168	5019	0.005583	0.0454	0.059195000000000005	0.0	0.0	0.0	0	0	1	-59.99999999999999	59.99999999999999								
	22006	666	0.0029820000000000003	0.006392	0.0003	44.0	60.0	44.0	0	0	1	-59.99999999999999	59.99999999999999								
	2365	2408	0.0044	0.0213	0.000533	134.0	134.0	134.0	0	0	1	-59.99999999999999	59.99999999999999								
	869	899	0.0029	0.0127	0.0048449999999999995	121.0	121.0	121.0	0	0	1	-59.99999999999999	59.99999999999999								
	9435	61	0.00078	0.014339999999999999	1.5667	3290.0	3919.0	3290.0	0	0	1	-59.99999999999999	59.99999999999999								
	4243	2224	0.00192	0.0049499999999999995	0.0012	103.0	117.0	103.0	0	0	1	-59.99999999999999	59.99999999999999								
	4607	4645	0.1507	0.42200000000000004	0.0007000000000000001	20.0	25.0	20.0	0	0	1	-59.99999999999999	59.99999999999999								
	4542	4552	0.01595	0.09455999999999999	0.19134	279.0	348.0	348.0	0	0	1	-59.99999999999999	59.99999999999999								
	23584	3584	0.00402	0.007980000000000001	0.000132	52.0	52.0	52.0	0	0	0	-59.99999999999999	59.99999999999999								
	6368	5902	0.0353	0.19030000000000002	0.3308	250.99999999999997	250.99999999999997	250.99999999999997	0	0	1	-59.99999999999999	59.99999999999999								
	1236	9569	0.02459	0.11738	0.21521	270.0	341.0	341.0	0	0	1	-59.99999999999999	59.99999999999999								
	782	783	0.076	0.221	0.05908	80.0	92.0	80.0	0	0	1	-59.99999999999999	59.99999999999999								
	1614	260	0.00025100000000000003	0.000522	0.000126	96.0	120.0	96.0	0	0	1	-59.99999999999999	59.99999999999999								
	2620	2666	0.0015	0.0087	0.00244	250.0	250.0	250.0	0	0	1	-59.99999999999999	59.99999999999999								
	9538	2458	0.005600000000000001	0.0335	0.0667	319.0	372.0	372.0	0	0	1	-59.99999999999999	59.99999999999999								
	2649	2645	0.00953	0.03401	0.00884	154.0	154.0	154.0	0	0	1	-59.99999999999999	59.99999999999999								
	683	3131	0.0	0.001	0.0	0.0	0.0	0.0	0	0	1	-59.99999999999999	59.99999999999999								
	2368	2358	0.0187	0.0541	0.0009270000000000001	77.0	77.0	77.0	0	0	1	-59.99999999999999	59.99999999999999								
	7831	4773	0.10752	0.2236	0.05373	84.0	105.0	84.0	0	0	1	-59.99999999999999	59.99999999999999								
	439	126	0.000366	0.005575	0.1537	2390.0	2390.0	2390.0	0	0	1	-59.99999999999999	59.99999999999999								
	9756	2070	0.00836	0.03185	0.002014	108.0	158.0	158.0	0	0	1	-59.99999999999999	59.99999999999999								
	6914	6901	0.0364	0.1191	0.002121	69.0	69.0	69.0	0	0	1	-59.99999999999999	59.99999999999999								
	24186	24172	0.00232	0.005988	0.001487	139.0	163.0	139.0	0	0	1	-59.99999999999999	59.99999999999999								
	9605	106	0.0003	0.00452	0.38582	1855.0	2337.0	2337.0	0	0	1	-59.99999999999999	59.99999999999999								
	815	9358	0.0012	0.006	0.0116	229.99999999999997	310.0	310.0	0	0	1	-59.99999999999999	59.99999999999999								
	5916	8208	0.007579	0.098778	0.085697	0.0	0.0	0.0	0	0	1	-59.99999999999999	59.99999999999999								
	8697	8138	0.0041648	0.07470399999999999	0.00418	0.0	0.0	0.0	0	0	1	-59.99999999999999	59.99999999999999								
	6132	6131	0.00123	0.01238	0.04874	680.0	680.0	680.0	0	0	1	-59.99999999999999	59.99999999999999								
	1239	10358	0.00029	0.0016200000000000001	0.003	290.0	366.0	366.0	0	0	1	-59.99999999999999	59.99999999999999								
	9697	2377	0.0009	0.0045000000000000005	0.00857	158.0	179.0	179.0	0	0	1	-59.99999999999999	59.99999999999999								
	9679	1340	0.022463999999999998	0.078711	0.02097	167.0	202.99999999999997	167.0	0	0	1	-59.99999999999999	59.99999999999999								
	23164	3164	0.000179	0.000484	0.000137	110.00000000000001	139.0	139.0	0	0	0	-59.99999999999999	59.99999999999999								
	5058	5067	0.020813	0.1917	0.000371	0.0	0.0	0.0	0	0	1	-59.99999999999999	59.99999999999999								
	562	2174	0.01397	0.03438	0.00919	103.0	129.0	103.0	0	0	1	-59.99999999999999	59.99999999999999								
	8270	8280	0.0194	0.1332	0.66932	558.0	697.0	697.0	0	0	1	-59.99999999999999	59.99999999999999								
	6443	6445	0.00122	0.01758	5.303	4140.0	5213.0	5213.0	0	0	1	-59.99999999999999	59.99999999999999								
	4230	22330	0.00515	0.013540000000000002	0.00316	103.0	129.0	103.0	0	0	1	-59.99999999999999	59.99999999999999								
	964	976	0.0008	0.00906	1.1217	1688.0	1688.0	1688.0	0	0	1	-59.99999999999999	59.99999999999999								
	5580	5500	0.0014000000000000002	0.0222	3.2758	2201.0	2676.0	2676.0	0	0	1	-59.99999999999999	59.99999999999999								
	380	1475	0.00609	0.05606	0.93816	866.0	1117.0	1117.0	0	0	1	-59.99999999999999	59.99999999999999								
	2591	2582	0.2194	0.4573	0.00068	32.0	35.0	32.0	0	0	1	-59.99999999999999	59.99999999999999								
	1028	884	0.0191	0.0984	0.16855	288.0	337.0	337.0	0	0	1	-59.99999999999999	59.99999999999999								
	3243	263	0.00032300000000000004	0.001843	0.000524	194.0	247.00000000000003	194.0	0	0	1	-59.99999999999999	59.99999999999999								
	566	695	0.006999999999999999	0.0329	0.009399999999999999	143.0	150.0	143.0	0	0	1	-59.99999999999999	59.99999999999999								
	2827	2832	0.0322	0.0823	0.0208	48.0	48.0	48.0	0	0	1	-59.99999999999999	59.99999999999999								
	11558	3837	0.0055000000000000005	0.014190000000000001	0.003526	98.0	106.0	139.0	0	0	0	-59.99999999999999	59.99999999999999								
	4289	568	0.015	0.03712	0.00993	101.0	144.0	101.0	0	0	0	-59.99999999999999	59.99999999999999								
	2510	2527	0.0027	0.0123	0.055810000000000005	160.0	176.0	176.0	0	0	1	-59.99999999999999	59.99999999999999								
	23477	3477	0.0005712	0.0013157	5.6699999999999996e-5	103.0	103.0	103.0	0	0	0	-59.99999999999999	59.99999999999999								
	2530	2537	0.11703	0.2446	0.00645	63.0	70.0	63.0	0	0	1	-59.99999999999999	59.99999999999999								
	22723	3066	0.0	0.0001	0.0	0.0	0.0	0.0	0	0	0	-59.99999999999999	59.99999999999999								
	3228	3229	0.000659	0.0013700000000000001	0.001323	134.0	134.0	134.0	0	0	0	-59.99999999999999	59.99999999999999								
	1761	8717	0.11361	0.16665	0.002404	42.0	42.0	42.0	0	0	1	-59.99999999999999	59.99999999999999								
	2370	2412	0.0199	0.0564	0.001202	77.0	77.0	77.0	0	0	1	-59.99999999999999	59.99999999999999								
	27625	21974	0.0012950000000000001	0.003321	0.0018570000000000001	80.0	80.0	80.0	0	0	1	-59.99999999999999	59.99999999999999								
	6580	26580	0.0	0.0001	0.0	0.0	0.0	0.0	0	0	0	-59.99999999999999	59.99999999999999								
	1271	10054	0.008556000000000001	0.029911	0.00043	84.0	101.0	101.0	0	0	1	-59.99999999999999	59.99999999999999								
	5402	8192	0.00856	0.04119	0.01173	229.99999999999997	269.0	269.0	0	0	1	-59.99999999999999	59.99999999999999								
	3517	4120	0.001066	0.007528	0.00426	359.0	454.0	454.0	0	0	1	-59.99999999999999	59.99999999999999								
	1781	3966	0.0029	0.0317	0.6517000000000001	852.9999999999999	1075.0	1075.0	0	0	1	-59.99999999999999	59.99999999999999								
	210	4531	0.00191	0.028069999999999998	2.439	2459.0	2459.0	2459.0	0	0	1	-59.99999999999999	59.99999999999999								
	2881	2882	0.00213	0.00668	0.0022	48.0	48.0	48.0	0	0	1	-59.99999999999999	59.99999999999999								
	734	22011	0.020922999999999997	0.052754	0.013500000000000002	108.0	130.0	108.0	0	0	1	-59.99999999999999	59.99999999999999								
	4443	4874	9.599999999999999e-5	0.000671	0.00018800000000000002	136.0	170.0	136.0	0	0	1	-59.99999999999999	59.99999999999999								
	8479	8483	1.0e-5	1.0e-5	0.0	0.0	0.0	0.0	0	0	1	-59.99999999999999	59.99999999999999								
	703	2100	0.0039000000000000003	0.0141	0.0034999999999999996	103.0	129.0	103.0	0	0	1	-59.99999999999999	59.99999999999999								
	21961	21960	0.0010630000000000001	0.00254	0.0007000000000000001	139.0	163.0	139.0	0	0	1	-59.99999999999999	59.99999999999999								
	2222	2280	0.0019	0.009899999999999999	0.0029	188.0	225.0	188.0	0	0	1	-59.99999999999999	59.99999999999999								
	435	126	0.0001	0.0013	0.0359	1793.0	1793.0	1793.0	0	0	1	-59.99999999999999	59.99999999999999								
	9754	1343	0.0	0.13127	0.0	0.0	0.0	0.0	0	0	1	-59.99999999999999	59.99999999999999								
	1438	271	0.0001	0.00020899999999999998	5.0e-5	96.0	120.0	96.0	0	0	0	-59.99999999999999	59.99999999999999								
	1101	1103	1.0e-5	0.00023	0.02239	2858.0	3377.0000000000005	3377.0000000000005	0	0	1	-59.99999999999999	59.99999999999999								
	3990	3915	0.147	0.2311	0.0032	36.0	44.0	36.0	0	0	1	-59.99999999999999	59.99999999999999								
	5959	7916	0.0037015999999999998	0.221	0.026537	0.0	0.0	0.0	0	0	1	-59.99999999999999	59.99999999999999								
	575	21953	0.0031509999999999997	0.014074999999999999	0.0040999999999999995	150.0	150.0	150.0	0	0	1	-59.99999999999999	59.99999999999999								
	886	1028	0.0054	0.01917	0.03564	350.0	378.0	378.0	0	0	1	-59.99999999999999	59.99999999999999								
	3498	3499	0.0005899999999999999	0.00149	0.0	81.0	81.0	81.0	0	0	0	-59.99999999999999	59.99999999999999								
	1373	1371	0.07123499999999999	0.18442	0.004524	55.00000000000001	55.00000000000001	55.00000000000001	0	0	1	-59.99999999999999	59.99999999999999								
	2308	2321	0.15289999999999998	0.23010000000000003	0.0032	22.0	27.0	22.0	0	0	0	-59.99999999999999	59.99999999999999								
	2478	2392	0.019	0.0641	0.001549	71.0	90.0	90.0	0	0	0	-59.99999999999999	59.99999999999999								
	848	855	0.0458	0.14	0.034614	89.0	125.0	125.0	0	0	1	-59.99999999999999	59.99999999999999								
	7235	7113	0.00048	0.0075	1.1023	2851.0	2851.0	2851.0	0	0	1	-59.99999999999999	59.99999999999999								
	5740	5750	0.0015	0.019	1.9254	2165.0	2165.0	2165.0	0	0	1	-59.99999999999999	59.99999999999999								
	2070	1247	0.02689	0.10253	0.006483	108.0	158.0	158.0	0	0	1	-59.99999999999999	59.99999999999999								
	2130	3101	0.00953	0.02218	0.005580000000000001	101.0	144.0	101.0	0	0	1	-59.99999999999999	59.99999999999999								
	4086	1569	0.00385	0.01748	0.005	182.0	182.0	182.0	0	0	1	-59.99999999999999	59.99999999999999								
	693	11684	0.015545	0.040157	0.010700000000000001	80.0	108.0	80.0	0	0	1	-59.99999999999999	59.99999999999999								
	730	3084	0.0	0.001	0.0	96.0	96.0	96.0	0	0	1	-59.99999999999999	59.99999999999999								
	8088	5075	0.003559	0.17118	0.027370000000000002	0.0	0.0	0.0	0	0	1	-59.99999999999999	59.99999999999999								
	21986	3130	0.0	0.0001	0.0	0.0	0.0	0.0	0	0	0	-59.99999999999999	59.99999999999999								
	7063	7053	1.0e-5	0.00010999999999999999	0.00958	1980.0	2286.0	1980.0	0	0	1	-59.99999999999999	59.99999999999999								
	10139	2418	0.0060999999999999995	0.0176	0.004824	96.0	138.0	138.0	0	0	1	-59.99999999999999	59.99999999999999								
	2354	9708	0.0003	0.0016	0.0005870000000000001	134.0	191.0	191.0	0	0	1	-59.99999999999999	59.99999999999999								
	322	7170	0.023399999999999997	0.0691	0.0168	150.0	150.0	150.0	0	0	1	-59.99999999999999	59.99999999999999								
	7945	6365	0.11718	0.29271	0.07694	136.0	136.0	136.0	0	0	1	-59.99999999999999	59.99999999999999								
	1084	7079	0.0104	0.0889	0.344	669.0	823.0	823.0	0	0	1	-59.99999999999999	59.99999999999999								
	7770	7771	0.00992	0.013500000000000002	0.003	87.0	117.0	87.0	0	0	1	-59.99999999999999	59.99999999999999								
	14233	14234	0.010155	0.026629999999999997	0.0068000000000000005	108.0	130.0	108.0	0	0	1	-59.99999999999999	59.99999999999999								
	42400	5191	0.0006	0.0033	0.006	250.99999999999997	317.0	317.0	0	0	1	-59.99999999999999	59.99999999999999								
	1206	9783	0.00776	0.04333	0.08524	307.0	386.0	386.0	0	0	1	-59.99999999999999	59.99999999999999								
	5362	5150	0.0005	0.0037	0.0138	0.0	0.0	0.0	0	0	1	-59.99999999999999	59.99999999999999								
	3940	3941	0.1685	0.42845999999999995	0.0068672	72.0	82.0	25.0	0	0	1	-59.99999999999999	59.99999999999999								
	307	755	0.061900000000000004	0.162	0.03875	125.0	154.0	125.0	0	0	1	-59.99999999999999	59.99999999999999								
	1461	1669	0.001872	0.005464	0.030287	153.0	194.0	153.0	0	0	0	-59.99999999999999	59.99999999999999								
	2723	992	0.020059999999999998	0.06718	0.01846	119.0	151.0	151.0	0	0	1	-59.99999999999999	59.99999999999999								
	3945	23944	0.00196	0.005059	0.001256	95.0	139.0	95.0	0	0	1	-59.99999999999999	59.99999999999999								
	7425	1577	0.023399999999999997	0.0602	0.0148	125.0	160.0	125.0	0	0	1	-59.99999999999999	59.99999999999999								
	3329	3338	0.0663	0.1736	0.04152	110.00000000000001	110.00000000000001	110.00000000000001	0	0	1	-59.99999999999999	59.99999999999999								
	249	791	0.08560000000000001	0.21760000000000002	0.0542	93.0	118.0	93.0	0	0	1	-59.99999999999999	59.99999999999999								
	2645	3065	0.01496	0.03832	0.00942	135.0	135.0	135.0	0	0	1	-59.99999999999999	59.99999999999999								
	2081	9781	0.011000000000000001	0.037000000000000005	0.001	84.0	101.0	84.0	0	0	1	-59.99999999999999	59.99999999999999								
	5101	5121	0.011899999999999999	0.061200000000000004	0.1188	250.99999999999997	250.99999999999997	250.99999999999997	0	0	1	-59.99999999999999	59.99999999999999								
	1417	289	0.0008179999999999999	0.0033239999999999997	0.000891	193.0	211.0	193.0	0	0	0	-59.99999999999999	59.99999999999999								
	2994	779	0.017	0.0499	0.0131	103.0	120.0	103.0	0	0	1	-59.99999999999999	59.99999999999999								
	9554	9555	0.00196	0.00645	0.00012	54.0	79.0	79.0	0	0	1	-59.99999999999999	59.99999999999999								
	1026	10234	0.0643	0.16570000000000001	0.04172	97.0	124.0	97.0	0	0	1	-59.99999999999999	59.99999999999999								
	4433	4435	0.0037	0.0144	0.004	136.0	170.0	136.0	0	0	1	-59.99999999999999	59.99999999999999								
	940	2752	0.0331	0.0848	0.0227	119.0	151.0	143.0	0	0	1	-59.99999999999999	59.99999999999999								
	4803	3572	0.031	0.16545	0.04872	170.0	213.0	213.0	0	0	1	-59.99999999999999	59.99999999999999								
	7488	1396	0.0025	0.0064600000000000005	0.001593	122.0	146.0	122.0	0	0	1	-59.99999999999999	59.99999999999999								
	1431	278	0.001042	0.013776	0.004675	347.0	457.0	457.0	0	0	1	-59.99999999999999	59.99999999999999								
	1138	1082	0.0751	0.196	0.04749	97.0	124.0	124.0	0	0	0	-59.99999999999999	59.99999999999999								
	9608	107	0.0003	0.00607	0.6459999999999999	1855.0	2337.0	2337.0	0	0	1	-59.99999999999999	59.99999999999999								
	229	3003	1.0e-5	1.0e-5	0.008100000000000001	260.0	260.0	260.0	0	0	1	-59.99999999999999	59.99999999999999								
	5851	5805	0.0066679999999999994	0.091054	0.008888	0.0	0.0	0.0	0	0	1	-59.99999999999999	59.99999999999999								
	4370	7374	0.001774	0.046542	0.020026000000000002	0.0	0.0	0.0	0	0	1	-59.99999999999999	59.99999999999999								
	2544	221	0.0783	0.1636	0.00024	32.0	35.0	32.0	0	0	1	-59.99999999999999	59.99999999999999								
	10014	10189	0.00658	0.021099999999999997	0.0004	44.5	44.5	44.5	0	0	1	-59.99999999999999	59.99999999999999								
	878	954	0.0217	0.11230000000000001	0.19327000000000003	237.0	298.0	298.0	0	0	1	-59.99999999999999	59.99999999999999								
	999	66	1.0e-5	8.999999999999999e-5	0.01135	2162.0	2724.0	2724.0	0	0	1	-59.99999999999999	59.99999999999999								
	2799	9721	0.01443	0.04854	0.01321	119.0	151.0	151.0	0	0	1	-59.99999999999999	59.99999999999999								
	7055	7059	1.0e-5	1.0e-5	0.0	0.0	0.0	0.0	0	0	1	-59.99999999999999	59.99999999999999								
	1389	9293	0.0042	0.0158	0.0003	54.0	79.0	79.0	0	0	1	-59.99999999999999	59.99999999999999								
	4839	4871	0.0229	0.0557	0.0143	86.0	100.0	80.0	0	0	1	-59.99999999999999	59.99999999999999								
	7091	7094	0.1888	0.3579	0.00642	40.0	46.0	40.0	0	0	1	-59.99999999999999	59.99999999999999								
	2985	2945	0.077	0.22399999999999998	0.0599	103.0	120.0	103.0	0	0	1	-59.99999999999999	59.99999999999999								
	687	22003	0.0062	0.016200000000000003	0.0042	80.0	80.0	80.0	0	0	1	-59.99999999999999	59.99999999999999								
	5782	8455	0.0015	0.0021	0.0	0.0	0.0	0.0	0	0	1	-59.99999999999999	59.99999999999999								
	2079	10211	0.0	1.0e-5	0.0	0.0	0.0	0.0	0	0	1	-59.99999999999999	59.99999999999999								
	564	22004	0.067762	0.17135	0.0441	108.0	130.0	108.0	0	0	1	-59.99999999999999	59.99999999999999								
	3120	3481	2.3999999999999997e-5	0.000127	5.999999999999999e-6	159.0	159.0	159.0	0	0	1	-59.99999999999999	59.99999999999999								
	9773	9774	0.046790000000000005	0.049710000000000004	0.0006429999999999999	23.0	33.0	33.0	0	0	1	-59.99999999999999	59.99999999999999								
	5003	5401	0.0218	0.09720000000000001	0.509	400.0	400.0	400.0	0	0	1	-59.99999999999999	59.99999999999999								
	9264	9968	0.00703	0.028650000000000002	0.000373	54.0	79.0	79.0	0	0	1	-59.99999999999999	59.99999999999999								
	4245	2145	0.00178	0.009519999999999999	0.00293	188.0	191.0	188.0	0	0	1	-59.99999999999999	59.99999999999999								
	2486	9426	0.0023	0.0102	0.00386	107.0	107.0	107.0	0	0	1	-59.99999999999999	59.99999999999999								
	1292	1305	0.13970000000000002	0.44179999999999997	0.00796	85.0	85.0	85.0	0	0	1	-59.99999999999999	59.99999999999999								
	7352	1565	0.0038	0.0087	0.002	150.0	150.0	150.0	0	0	1	-59.99999999999999	59.99999999999999								
	8918	8919	0.0	0.25571	0.0	0.0	0.0	0.0	0	0	1	-59.99999999999999	59.99999999999999								
	7608	24175	0.00077	0.001987	0.000494	95.0	139.0	95.0	0	0	1	-59.99999999999999	59.99999999999999								
	7802	4326	0.15388	0.24369	0.0039298	33.0	33.0	33.0	0	0	1	-59.99999999999999	59.99999999999999								
	13149	2040	0.35697	0.4989	0.0216	38.0	52.0	38.0	0	0	1	-59.99999999999999	59.99999999999999								
	11973	17625	0.003629	0.009399999999999999	0.00154	80.0	80.0	80.0	0	0	1	-59.99999999999999	59.99999999999999								
	4979	4699	0.008523	0.033759000000000004	7.18e-5	42.0	52.0	42.0	0	0	1	-59.99999999999999	59.99999999999999								
	1459	1460	0.000373	0.0021290000000000002	0.000605	194.0	247.00000000000003	194.0	0	0	1	-59.99999999999999	59.99999999999999								
	1199	9752	0.0011200000000000001	0.00647	0.01141	140.0	268.0	268.0	0	0	1	-59.99999999999999	59.99999999999999								
	3271	1676	1.0e-5	1.0e-5	1.0e-5	153.0	194.0	153.0	0	0	1	-59.99999999999999	59.99999999999999								
	11939	12000	0.052053	0.1346	0.0358	80.0	108.0	80.0	0	0	1	-59.99999999999999	59.99999999999999								
	1071	1213	0.01256	0.07044	0.13624	321.0	376.0	450.0	0	0	1	-59.99999999999999	59.99999999999999								
	5684	5550	0.00029	0.00425	0.6145	2598.0	2598.0	2598.0	0	0	1	-59.99999999999999	59.99999999999999								
	6400	6440	0.00023	0.00362	0.526	2598.0	2598.0	2598.0	0	0	1	-59.99999999999999	59.99999999999999								
	8141	8139	0.004884	0.062698	0.09370799999999999	0.0	0.0	0.0	0	0	1	-59.99999999999999	59.99999999999999								
	72	71	0.00064	0.0154	7.6	4133.0	4174.0	4174.0	0	0	1	-59.99999999999999	59.99999999999999								
	22937	3842	0.003	0.0079	0.002	95.0	139.0	84.0	0	0	1	-59.99999999999999	59.99999999999999								
	21951	3936	0.0	0.0001	0.0	0.0	0.0	0.0	0	0	0	-59.99999999999999	59.99999999999999								
	2209	577	0.01122	0.0277	0.0074	101.0	144.0	101.0	0	0	1	-59.99999999999999	59.99999999999999								
	185	1773	0.022000000000000002	0.0731	0.0218	97.0	124.0	97.0	0	0	1	-59.99999999999999	59.99999999999999								
	2542	221	0.08130000000000001	0.1911	0.0035199999999999997	23.0	23.0	23.0	0	0	1	-59.99999999999999	59.99999999999999								
	5201	5222	0.0182	0.0973	0.1668	250.99999999999997	317.0	317.0	0	0	1	-59.99999999999999	59.99999999999999								
...
];

%% dcline data
%    f_bus    t_bus    status    Pf    Pt    Qf    Qt    Vf    Vt    Pmin    Pmax    QminF    QmaxF    QminT    QmaxT    loss0    loss1
mpc.dcline = [
	85	86	1	625.0	613.6393229166666	-0.0	-0.0	1.06	1.025	-613.6393229166666	625.0	-622.621686307341	0.0	-586.8262029511452	0.0	0.0	0.0						
	85	86	1	625.0	613.6393229166666	-0.0	-0.0	1.06	1.025	-613.6393229166666	625.0	-622.621686307341	0.0	-586.8262029511452	0.0	0.0	0.0						
	85	86	1	625.0	613.6393229166666	-0.0	-0.0	1.06	1.025	-613.6393229166666	625.0	-622.621686307341	0.0	-586.8262029511452	0.0	0.0	0.0						
	85	86	1	625.0	613.6393229166666	-0.0	-0.0	1.06	1.025	-613.6393229166666	625.0	-622.621686307341	0.0	-586.8262029511452	0.0	0.0	0.0						
	7055	7057	1	1575.0	1457.1703125	-0.0	-0.0	1.042	1.06	-1457.1703125	1575.0	-1569.0066494944992	0.0	-1393.4989000918924	0.0	0.0	0.0						
	7055	7057	1	1575.0	1457.1703125	-0.0	-0.0	1.042	1.06	-1457.1703125	1575.0	-1569.0066494944992	0.0	-1393.4989000918924	0.0	0.0	0.0						
	7055	7057	1	1575.0	1465.78359375	-0.0	-0.0	1.042	1.06	-1465.78359375	1575.0	-1569.0066494944992	0.0	-1390.0372553662787	0.0	0.0	0.0						
	7055	7057	1	1575.0	1465.78359375	-0.0	-0.0	1.042	1.06	-1465.78359375	1575.0	-1569.0066494944992	0.0	-1390.0372553662787	0.0	0.0	0.0						
	7059	7054	1	200.0	197.6841219541379	-0.0	-0.0	1.042	1.013	-197.6841219541379	200.0	-197.25712030744629	0.0	-183.28952618008847	0.0	0.0	0.0						
	7059	7054	1	200.0	197.6841219541379	-0.0	-0.0	1.042	1.013	-197.6841219541379	200.0	-197.25712030744629	0.0	-183.28952618008847	0.0	0.0	0.0						
	8100	3010	1	1500.0	1451.1328125	-0.0	-0.0	1.048	1.07	-1451.1328125	1500.0	-1463.301815918785	0.0	-1380.1093173378383	0.0	0.0	0.0						
	8100	3010	1	1500.0	1451.1328125	-0.0	-0.0	1.048	1.07	-1451.1328125	1500.0	-1463.301815918785	0.0	-1380.1093173378383	0.0	0.0	0.0						
	8100	9605	1	1500.0	1440.90234375	-0.0	-0.0	1.048	1.067	-1440.90234375	1500.0	-1494.2920471376183	0.0	-1377.9417642064095	0.0	0.0	0.0						
	8100	9605	1	1500.0	1440.90234375	-0.0	-0.0	1.048	1.067	-1440.90234375	1500.0	-1494.2920471376183	0.0	-1377.9417642064095	0.0	0.0	0.0						
];

%%-----  OPF Data  -----%%
%% cost data
%    1    startup    shutdown    n    x1    y1    ...    xn    yn
%    2    startup    shutdown    n    c(n-1)    ...    c0
mpc.gencost = [
	2	0.0	0.0	2	1.0	0.0
	2	0.0	0.0	2	1.0	0.0
	2	0.0	0.0	2	1.0	0.0
	2	0.0	0.0	2	1.0	0.0
	2	0.0	0.0	2	1.0	0.0
	2	0.0	0.0	2	1.0	0.0
	2	0.0	0.0	2	1.0	0.0
	2	0.0	0.0	2	1.0	0.0
	2	0.0	0.0	2	1.0	0.0
	2	0.0	0.0	2	1.0	0.0
	2	0.0	0.0	2	1.0	0.0
	2	0.0	0.0	2	1.0	0.0
	2	0.0	0.0	2	1.0	0.0
	2	0.0	0.0	2	1.0	0.0
	2	0.0	0.0	2	1.0	0.0
	2	0.0	0.0	2	1.0	0.0
	2	0.0	0.0	2	1.0	0.0
	2	0.0	0.0	2	1.0	0.0
	2	0.0	0.0	2	1.0	0.0
	2	0.0	0.0	2	1.0	0.0
	2	0.0	0.0	2	1.0	0.0
	2	0.0	0.0	2	1.0	0.0
	2	0.0	0.0	2	1.0	0.0
	2	0.0	0.0	2	1.0	0.0
	2	0.0	0.0	2	1.0	0.0
	2	0.0	0.0	2	1.0	0.0
	2	0.0	0.0	2	1.0	0.0
	2	0.0	0.0	2	1.0	0.0
	2	0.0	0.0	2	1.0	0.0
	2	0.0	0.0	2	1.0	0.0
	2	0.0	0.0	2	1.0	0.0
	2	0.0	0.0	2	1.0	0.0
	2	0.0	0.0	2	1.0	0.0
	2	0.0	0.0	2	1.0	0.0
	2	0.0	0.0	2	1.0	0.0
	2	0.0	0.0	2	1.0	0.0
	2	0.0	0.0	2	1.0	0.0
	2	0.0	0.0	2	1.0	0.0
	2	0.0	0.0	2	1.0	0.0
	2	0.0	0.0	2	1.0	0.0
	2	0.0	0.0	2	1.0	0.0
	2	0.0	0.0	2	1.0	0.0
	2	0.0	0.0	2	1.0	0.0
	2	0.0	0.0	2	1.0	0.0
	2	0.0	0.0	2	1.0	0.0
	2	0.0	0.0	2	1.0	0.0
	2	0.0	0.0	2	1.0	0.0
	2	0.0	0.0	2	1.0	0.0
	2	0.0	0.0	2	1.0	0.0
	2	0.0	0.0	2	1.0	0.0
	2	0.0	0.0	2	1.0	0.0
	2	0.0	0.0	2	1.0	0.0
	2	0.0	0.0	2	1.0	0.0
	2	0.0	0.0	2	1.0	0.0
	2	0.0	0.0	2	1.0	0.0
	2	0.0	0.0	2	1.0	0.0
	2	0.0	0.0	2	1.0	0.0
	2	0.0	0.0	2	1.0	0.0
	2	0.0	0.0	2	1.0	0.0
	2	0.0	0.0	2	1.0	0.0
	2	0.0	0.0	2	1.0	0.0
	2	0.0	0.0	2	1.0	0.0
	2	0.0	0.0	2	1.0	0.0
	2	0.0	0.0	2	1.0	0.0
	2	0.0	0.0	2	1.0	0.0
	2	0.0	0.0	2	1.0	0.0
	2	0.0	0.0	2	1.0	0.0
	2	0.0	0.0	2	1.0	0.0
	2	0.0	0.0	2	1.0	0.0
	2	0.0	0.0	2	1.0	0.0
	2	0.0	0.0	2	1.0	0.0
	2	0.0	0.0	2	1.0	0.0
	2	0.0	0.0	2	1.0	0.0
	2	0.0	0.0	2	1.0	0.0
	2	0.0	0.0	2	1.0	0.0
	2	0.0	0.0	2	1.0	0.0
	2	0.0	0.0	2	1.0	0.0
	2	0.0	0.0	2	1.0	0.0
	2	0.0	0.0	2	1.0	0.0
	2	0.0	0.0	2	1.0	0.0
	2	0.0	0.0	2	1.0	0.0
	2	0.0	0.0	2	1.0	0.0
	2	0.0	0.0	2	1.0	0.0
	2	0.0	0.0	2	1.0	0.0
	2	0.0	0.0	2	1.0	0.0
	2	0.0	0.0	2	1.0	0.0
	2	0.0	0.0	2	1.0	0.0
	2	0.0	0.0	2	1.0	0.0
	2	0.0	0.0	2	1.0	0.0
	2	0.0	0.0	2	1.0	0.0
	2	0.0	0.0	2	1.0	0.0
	2	0.0	0.0	2	1.0	0.0
	2	0.0	0.0	2	1.0	0.0
	2	0.0	0.0	2	1.0	0.0
	2	0.0	0.0	2	1.0	0.0
	2	0.0	0.0	2	1.0	0.0
	2	0.0	0.0	2	1.0	0.0
	2	0.0	0.0	2	1.0	0.0
	2	0.0	0.0	2	1.0	0.0
	2	0.0	0.0	2	1.0	0.0
	2	0.0	0.0	2	1.0	0.0
	2	0.0	0.0	2	1.0	0.0
	2	0.0	0.0	2	1.0	0.0
	2	0.0	0.0	2	1.0	0.0
	2	0.0	0.0	2	1.0	0.0
	2	0.0	0.0	2	1.0	0.0
	2	0.0	0.0	2	1.0	0.0
	2	0.0	0.0	2	1.0	0.0
	2	0.0	0.0	2	1.0	0.0
	2	0.0	0.0	2	1.0	0.0
	2	0.0	0.0	2	1.0	0.0
	2	0.0	0.0	2	1.0	0.0
	2	0.0	0.0	2	1.0	0.0
	2	0.0	0.0	2	1.0	0.0
	2	0.0	0.0	2	1.0	0.0
	2	0.0	0.0	2	1.0	0.0
	2	0.0	0.0	2	1.0	0.0
	2	0.0	0.0	2	1.0	0.0
	2	0.0	0.0	2	1.0	0.0
	2	0.0	0.0	2	1.0	0.0
	2	0.0	0.0	2	1.0	0.0
	2	0.0	0.0	2	1.0	0.0
	2	0.0	0.0	2	1.0	0.0
	2	0.0	0.0	2	1.0	0.0
	2	0.0	0.0	2	1.0	0.0
	2	0.0	0.0	2	1.0	0.0
	2	0.0	0.0	2	1.0	0.0
	2	0.0	0.0	2	1.0	0.0
	2	0.0	0.0	2	1.0	0.0
	2	0.0	0.0	2	1.0	0.0
	2	0.0	0.0	2	1.0	0.0
	2	0.0	0.0	2	1.0	0.0
	2	0.0	0.0	2	1.0	0.0
	2	0.0	0.0	2	1.0	0.0
	2	0.0	0.0	2	1.0	0.0
	2	0.0	0.0	2	1.0	0.0
	2	0.0	0.0	2	1.0	0.0
	2	0.0	0.0	2	1.0	0.0
	2	0.0	0.0	2	1.0	0.0
	2	0.0	0.0	2	1.0	0.0
	2	0.0	0.0	2	1.0	0.0
	2	0.0	0.0	2	1.0	0.0
	2	0.0	0.0	2	1.0	0.0
	2	0.0	0.0	2	1.0	0.0
	2	0.0	0.0	2	1.0	0.0
	2	0.0	0.0	2	1.0	0.0
	2	0.0	0.0	2	1.0	0.0
	2	0.0	0.0	2	1.0	0.0
	2	0.0	0.0	2	1.0	0.0
	2	0.0	0.0	2	1.0	0.0
	2	0.0	0.0	2	1.0	0.0
	2	0.0	0.0	2	1.0	0.0
	2	0.0	0.0	2	1.0	0.0
	2	0.0	0.0	2	1.0	0.0
	2	0.0	0.0	2	1.0	0.0
	2	0.0	0.0	2	1.0	0.0
	2	0.0	0.0	2	1.0	0.0
	2	0.0	0.0	2	1.0	0.0
	2	0.0	0.0	2	1.0	0.0
	2	0.0	0.0	2	1.0	0.0
	2	0.0	0.0	2	1.0	0.0
	2	0.0	0.0	2	1.0	0.0
	2	0.0	0.0	2	1.0	0.0
	2	0.0	0.0	2	1.0	0.0
	2	0.0	0.0	2	1.0	0.0
	2	0.0	0.0	2	1.0	0.0
	2	0.0	0.0	2	1.0	0.0
	2	0.0	0.0	2	1.0	0.0
	2	0.0	0.0	2	1.0	0.0
	2	0.0	0.0	2	1.0	0.0
	2	0.0	0.0	2	1.0	0.0
	2	0.0	0.0	2	1.0	0.0
	2	0.0	0.0	2	1.0	0.0
	2	0.0	0.0	2	1.0	0.0
	2	0.0	0.0	2	1.0	0.0
	2	0.0	0.0	2	1.0	0.0
	2	0.0	0.0	2	1.0	0.0
	2	0.0	0.0	2	1.0	0.0
	2	0.0	0.0	2	1.0	0.0
	2	0.0	0.0	2	1.0	0.0
	2	0.0	0.0	2	1.0	0.0
	2	0.0	0.0	2	1.0	0.0
	2	0.0	0.0	2	1.0	0.0
	2	0.0	0.0	2	1.0	0.0
	2	0.0	0.0	2	1.0	0.0
	2	0.0	0.0	2	1.0	0.0
	2	0.0	0.0	2	1.0	0.0
	2	0.0	0.0	2	1.0	0.0
	2	0.0	0.0	2	1.0	0.0
	2	0.0	0.0	2	1.0	0.0
	2	0.0	0.0	2	1.0	0.0
	2	0.0	0.0	2	1.0	0.0
	2	0.0	0.0	2	1.0	0.0
	2	0.0	0.0	2	1.0	0.0
	2	0.0	0.0	2	1.0	0.0
	2	0.0	0.0	2	1.0	0.0
	2	0.0	0.0	2	1.0	0.0
	2	0.0	0.0	2	1.0	0.0
	2	0.0	0.0	2	1.0	0.0
	2	0.0	0.0	2	1.0	0.0
...
];

%%-----  OPF Data  -----%%
%% cost data
%    1    startup    shutdown    n    x1    y1    ...    xn    yn
%    2    startup    shutdown    n    c(n-1)    ...    c0
mpc.dclinecost = [
	2	0.0	0.0	2	0.0	0.0
	2	0.0	0.0	2	0.0	0.0
	2	0.0	0.0	2	0.0	0.0
	2	0.0	0.0	2	0.0	0.0
	2	0.0	0.0	2	0.0	0.0
	2	0.0	0.0	2	0.0	0.0
	2	0.0	0.0	2	0.0	0.0
	2	0.0	0.0	2	0.0	0.0
	2	0.0	0.0	2	0.0	0.0
	2	0.0	0.0	2	0.0	0.0
	2	0.0	0.0	2	0.0	0.0
	2	0.0	0.0	2	0.0	0.0
	2	0.0	0.0	2	0.0	0.0
	2	0.0	0.0	2	0.0	0.0
];

%% bus names
mpc.bus_name = {
	'ANGRA1UNE001'
	'ANGRA2UNE001'
	'LCBARRUHE004'
	'LCBARRSIN000'
	'FUNIL-UHE002'
	'FURNASUHE006'
	'FURNASSIN000'
	'ITUMBIUHE004'
	'ITUMBISIN000'
	'MARIMBUHE006'
	'MANSO-UHE002'
	'M.MORAUHE004'
	'M.MORBUHE003'
	'PCOLOMUHE003'
	'SCRU19UTE000'
	'SCRU13UTE000'
	'SCRU16UTE002'
	'CORUMBUHE002'
	'S.MESAUHE001'
	'S.MESASIN002'
	'GRAJA2SIN001'
	'VITOR2SIN001'
	'GRAJA1SIN001'
	'CAMPO-CER015'
	'VITOR1SIN001'
	'IBIUNASIN004'
	'TPRETOSIN001'
	'P.ACU--RJ345'
	'GNA1G-UTE001'
	'GNA1V-UTE001'
	'BALTO-CER013'
	'IVAIP3-PR069'
	'IVAIP2-PR069'
	'IVAIP2-PR000'
	'IVAIP3-PR000'
	'F.IGUA-PR765'
	'FZ-500-PR500'
	'IV-FZ1CAP765'
	'IV-FZ2CAP765'
	'IV-FZ3CAP765'
	'IVAIPO-PR765'
	'IVAIPA-PR525'
	'IVAIP1-PR069'
	'IVAIP1-PR000'
	'IV-IT1CAP765'
	'IV-IT2CAP765'
	'IV-IT3CAP765'
	'ITABER-SP765'
	'IT-TP1CAP765'
	'IT-TP2CAP765'
	'IT-TP3CAP765'
	'TPRETO-SP765'
	'TPRETO-SP500'
	'TPRETO-SP345'
	'TPRETO-SP069'
	'TPRET3-SP000'
	'TPRET4-SP000'
	'TPRET2-SP345'
	'RESEN2-RJ138'
	'FOZ500-PR500'
	'IBIUNA-SP345'
	'RESEND-RJ500'
	'VIANA--ES345'
	'VIANT1-ES013'
	'SB-SM1CAP500'
	'SB-SM2CAP500'
	'SB-SM3CAP500'
	'VIANT2-ES013'
	'VIANT3-ES013'
	'AS-AR1-SP500'
	'MARIMB-MG500'
	'ARARAQ-SP500'
	'P.CALD-MG500'
	'CAMPIN-SP500'
	'C.PAUL-SP500'
	'ANGRA--RJ500'
	'ADRIAN-RJ500'
	'GRAJAU-RJ500'
	'S.JOSE-RJ500'
	'BYPSAD-RJ500'
	'GR1T52-RJ000'
	'BA-IB1-PR500'
	'BA-IB2-PR500'
	'BA-IT1-PR500'
	'BA-IT1CAP500'
	'IMBTAP-RJ138'
	'BANDT4-GO000'
	'BANDT4-GO013'
	'P.CALD-MG345'
	'PCAT51-MG000'
	'IBIUNA-SP500'
	'CAMPIN-SP345'
	'CAMP51-SP000'
	'IB-BA1CAP500'
	'GUARUL-SP345'
	'MO-RL1-SP345'
	'MO-RL2-SP345'
	'MOGI---SP345'
	'IB-BA2CAP500'
	'M.MORA-MG345'
	'ADRT1A-RJ000'
	'LCBARR-SP345'
	'JACT1A-RJ000'
	'FURNAS-MG345'
	'JACT2A-RJ000'
	'ITUTIN-MG345'
	'ADRT51-RJ000'
	'ADRIAN-RJ345'
	'ADRT53-RJ000'
	'ADRT55-RJ000'
	'ADRT2B-RJ000'
	'JACARE-RJ345'
	'ADRT1B-RJ000'
	'ADRT2A-RJ000'
	'CAMPOS-RJ345'
	'CAMPO1-RJ000'
	'VITORI-ES345'
	'VITAT1-ES000'
	'VITAT2-ES000'
	'VITAT3-ES000'
	'VITAT2-ES013'
	'VITAT3-ES013'
	'VITAT4-ES013'
	'VITAT4-ES000'
	'JA-R30-RJ013'
	'JB-R60-RJ013'
	'MO-FCE-SP230'
	'CAMAT1-SP000'
	'CAMPI1-SP013'
	'PCAT02-MG000'
	'P.CAL2-MG013'
	'JACT1B-RJ000'
	'JA-R60-RJ013'
	'SJOSE2-RJ138'
	'P.CALD-MG138'
	'CAMPI1-SP138'
	'IMBARE-RJ138'
	'ADRIAN-RJ138'
	'R.LEAO-RJ138'
	'CAMPOS-RJ138'
	'CAMP54-SP000'
	'VITOR1-ES138'
	'GRAJAU-RJ138'
	'GR2T54-RJ000'
	'JACAR2-RJ138'
	'ANGDEF-RJ138'
	'FUNIL--RJ138'
	'C.PAUL-SP138'
	'S.CRUZ-RJ138'
	'ANGRA--RJ138'
	'CAMP54-SP013'
	'M.MORA-MG138'
	'BGERT1-DF000'
	'P.COL--MG138'
	'CAMPO1-RJ013'
	'ADRT55-RJ013'
	'ADRT53-RJ013'
	'CAMP51-SP013'
	'ADRT51-RJ013'
	'PCALAT-MG013'
	'VITAT1-ES013'
	'UCAMP1-RJ000'
	'RSIL-1UTE001'
	'UCAMP2-RJ000'
	'RSIL-2UTE001'
	'ADRT1B-RJ013'
	'ADRT2A-RJ013'
	'ADRT2B-RJ013'
	'BGERT1-DF013'
	'ADRT1A-RJ013'
	'ITUMBI-MG500'
	'CAMPO2-RJ000'
	'CAMPO2-RJ013'
	'MARIMB-MG345'
	'MARIMB-MG000'
	'P.COL--MG345'
	'ITUMBI-MG345'
	'BANDEI-GO345'
	'B.SUL--DF345'
	'CORUMB-GO345'
	'B.GERA-DF034'
	'BSULT6-DF000'
	'BANDT1-GO000'
	'BANDT2-GO000'
	'ITUMBI-MG230'
	'BANDEI-GO230'
	'B.GERA-DF230'
	'B.SUL--DF230'
	'B.ALTO-GO230'
	'S.MESA-GO230'
	'R.VERD-GO230'
	'BSULT6-DF013'
	'SAMAMB-DF500'
	'SAMAMB-DF345'
	'S.MESA-GO500'
	'B.SUL--DF138'
	'SAMAMB-DF138'
	'R.VERD-GO138'
	'S.MESA-GO138'
	'RVERT1-GO000'
	'RVERT1-GO013'
	'BANDT1-GO013'
	'BANDT2-GO013'
	'BSU-T7-DF000'
	'BSULT7-DF013'
	'MARIMB-MG013'
	'C.BRAV-GO138'
	'RBOIS-TAP138'
	'RCLARO-GO138'
	'NPECA2UHE001'
	'N.PECA-RJ138'
	'N.PECA-RJ230'
	'FONTE2UHE001'
	'FONTES-RJ138'
	'PPASSOUHE001'
	'PPASSO-RJ138'
	'I.POMBUHE004'
	'I.POMB-RJ138'
	'SCECIL-RJ013'
	'S.CEC-PCH138'
	'VIGARI-RJ013'
	'VIGARI-RJ138'
	'TAQUAR-RJ138'
	'VULCAN-RJ138'
	'S.CLAR-RJ138'
	'CPP----RJ138'
	'CFRTAP-RJ138'
	'CSN---UTE002'
	'CORDOV-RJ138'
	'MERITI-RJ138'
	'TRIAGE-RJ138'
	'SAUDAD-RJ138'
	'V.RED-PCH138'
	'CASCA2-RJ138'
	'BRISAM-RJ138'
	'ZIN----RJ138'
	'PALMAR-RJ138'
	'BRAHMA-RJ138'
	'RETIRO-RJ138'
	'RECREI-RJ138'
	'TERM.S-RJ138'
	'F.CANE-RJ138'
	'C.SOAR-RJ138'
	'R.FREI-RJ138'
	'SARAPU-RJ138'
	'ROSALI-RJ138'
	'CAMARA-RJ138'
	'SAMARI-RJ138'
	'PMETR1-RJ138'
	'PMETR2-RJ138'
	'CAMOR--RJ138'
	'SANTIS-RJ138'
	'SEROPE-RJ138'
	'S.BRANUHE002'
...